LTspice 26.0.1 for Windows
Circuit: g:\My Drive\0 - SUTD\Term 6\Power Electronics\Project\ltspice\Draft2.net
Start Time: Sun Apr  5 18:09:10 2026
solver = Normal
Maximum thread count: 12
tnom = 27
temp = 27
method = trap
Direct Newton iteration failed to find operating point.
Starting Gmin stepping
Gmin stepping succeeded in finding the operating point.

Total elapsed time: 4.073 seconds.

Files loaded:
g:\My Drive\0 - SUTD\Term 6\Power Electronics\Project\ltspice\Draft2.net
C:\Users\vince\AppData\Local\LTspice\lib\cmp\standard.bjt
C:\Users\vince\AppData\Local\LTspice\lib\cmp\standard.mos
g:\My Drive\0 - SUTD\Term 6\Power Electronics\Project\ltspice\FullSystemModels.lib

