LTspice 26.0.1 for Windows
Circuit: G:\My Drive\0 - SUTD\Term 6\Power Electronics\Project\ltspice\Draft2.net
Start Time: Sun Apr  5 18:16:51 2026
solver = Normal
Maximum thread count: 12
tnom = 27
temp = 27
method = trap
Direct Newton iteration failed to find operating point.
Starting Gmin stepping
Gmin stepping failed to find operating point. Use".option gminsteps=0" to skip all Gmin stepping.
Starting source stepping with srcstepmethod=0
Source stepping succeeded in finding the operating point.

Total elapsed time: 10.045 seconds.

Files loaded:
G:\My Drive\0 - SUTD\Term 6\Power Electronics\Project\ltspice\Draft2.net
C:\Users\vince\AppData\Local\LTspice\lib\cmp\standard.bjt
C:\Users\vince\AppData\Local\LTspice\lib\cmp\standard.mos
G:\My Drive\0 - SUTD\Term 6\Power Electronics\Project\ltspice\FullSystemModels.lib

